<?xml version="1.0" encoding="UTF-8"?>

<!-- generated on 2024-11-28 15:21:19 by Eclipse SUMO netedit Version 1.21.0
<neteditConfiguration xmlns:xsi="http://www.w3.org/2001/XMLSchema-instance" xsi:noNamespaceSchemaLocation="http://sumo.dlr.de/xsd/neteditConfiguration.xsd">

    <input>
        <sumocfg-file value="C:\Users\hp\sumo shivam\tinker final\tinker-final.sumocfg"/>
        <additional-files value="C:\Users\hp\sumo shivam\tinker final\tinker-final.add.xml"/>
        <route-files value="C:\Users\hp\sumo shivam\tinker final\tinker-final.rou.xml"/>
        <data-files value="C:\Users\hp\sumo shivam\tinker final\tinker-final.dat.xml"/>
        <sumo-net-file value="C:\Users\hp\sumo shivam\tinker final\tinker.net.xml"/>
    </input>

    <output>
        <output-file value="C:\Users\hp\sumo shivam\tinker final\tinker.net.xml"/>
    </output>

    <processing>
        <geometry.min-radius.fix.railways value="false"/>
        <geometry.max-grade.fix value="false"/>
        <offset.disable-normalization value="true"/>
        <lefthand value="1"/>
    </processing>

    <junctions>
        <no-internal-links value="false"/>
        <no-turnarounds value="true"/>
        <junctions.corner-detail value="5"/>
        <junctions.limit-turn-speed value="5.50"/>
        <rectangular-lane-cut value="0"/>
    </junctions>

    <pedestrian>
        <walkingareas value="1"/>
    </pedestrian>

</neteditConfiguration>
-->

<net version="1.20" junctionCornerDetail="5" walkingareas="true" lefthand="true" limitTurnSpeed="5.50" xmlns:xsi="http://www.w3.org/2001/XMLSchema-instance" xsi:noNamespaceSchemaLocation="http://sumo.dlr.de/xsd/net_file.xsd">

    <location netOffset="-8512055.47,-3627567.05" convBoundary="0.00,0.00,1813.81,1492.45" origBoundary="76.465095,30.960089,76.481389,30.971585" projParameter="+proj=merc +a=6378137 +b=6378137 +lat_ts=0.0 +lon_0=0.0 +x_0=0.0 +y_0=0 +k=1.0 +units=m +nadgrids=@null +wktext +no_defs"/>

    <type id="highway.path" priority="1" numLanes="1" speed="5.56" allow="pedestrian bicycle" oneway="0" width="2.00"/>
    <type id="highway.raceway" priority="15" numLanes="2" speed="83.33" allow="vip" oneway="0"/>
    <type id="highway.service" priority="1" numLanes="1" speed="5.56" allow="pedestrian delivery bicycle" oneway="0"/>

    <edge id=":10939627761_0" function="internal">
        <lane id=":10939627761_0_0" index="0" speed="5.56" length="14.40" shape="466.97,829.49 452.57,829.44"/>
    </edge>
    <edge id=":10939627761_1" function="internal">
        <lane id=":10939627761_1_0" index="0" speed="5.56" length="4.08" shape="466.97,829.49 463.10,830.03 462.96,830.11"/>
    </edge>
    <edge id=":10939627761_2" function="internal">
        <lane id=":10939627761_2_0" index="0" speed="3.65" length="1.44" shape="466.97,829.49 465.77,830.28"/>
    </edge>
    <edge id=":10939627761_9" function="internal">
        <lane id=":10939627761_9_0" index="0" speed="5.56" length="10.16" shape="462.96,830.11 460.35,831.68 458.71,834.44 458.19,838.31"/>
    </edge>
    <edge id=":10939627761_10" function="internal">
        <lane id=":10939627761_10_0" index="0" speed="3.65" length="3.23" shape="465.77,830.28 465.37,831.08 465.76,831.88 466.96,832.69"/>
    </edge>
    <edge id=":10939627761_3" function="internal">
        <lane id=":10939627761_3_0" index="0" speed="5.56" length="9.03" shape="461.39,838.28 461.72,835.83 462.76,834.08 464.51,833.03 466.96,832.69"/>
    </edge>
    <edge id=":10939627761_4" function="internal">
        <lane id=":10939627761_4_0" index="0" speed="5.56" length="14.21" shape="461.39,838.28 460.81,834.42 459.15,831.66 456.40,830.00 452.57,829.44"/>
    </edge>
    <edge id=":10939627761_5" function="internal">
        <lane id=":10939627761_5_0" index="0" speed="3.65" length="1.44" shape="461.39,838.28 460.58,837.09"/>
    </edge>
    <edge id=":10939627761_11" function="internal">
        <lane id=":10939627761_11_0" index="0" speed="3.65" length="3.23" shape="460.58,837.09 459.77,836.70 458.98,837.10 458.19,838.31"/>
    </edge>
    <edge id=":10939627761_6" function="internal">
        <lane id=":10939627761_6_0" index="0" speed="5.56" length="9.09" shape="452.56,832.64 455.00,833.00 456.76,834.06 457.82,835.83 458.19,838.31"/>
    </edge>
    <edge id=":10939627761_7" function="internal">
        <lane id=":10939627761_7_0" index="0" speed="5.56" length="14.40" shape="452.56,832.64 466.96,832.69"/>
    </edge>
    <edge id=":10939627761_8" function="internal">
        <lane id=":10939627761_8_0" index="0" speed="3.65" length="1.44" shape="452.56,832.64 453.76,831.84"/>
    </edge>
    <edge id=":10939627761_12" function="internal">
        <lane id=":10939627761_12_0" index="0" speed="3.65" length="3.23" shape="453.76,831.84 454.16,831.04 453.77,830.24 452.57,829.44"/>
    </edge>
    <edge id=":10939627761_w0" function="walkingarea">
        <lane id=":10939627761_w0_0" index="0" allow="pedestrian" speed="2.78" length="10.04" width="6.40" shape="466.98,827.89 466.95,834.29 464.74,834.72 463.96,835.27 463.41,836.05 463.09,837.05 462.99,838.27 456.59,838.32 456.12,836.06 455.56,835.26 454.78,834.70 453.78,834.35 452.55,834.24 452.58,827.84"/>
    </edge>
    <edge id=":10939627765_0" function="internal">
        <lane id=":10939627765_0_0" index="0" speed="5.56" length="14.42" shape="1518.65,846.80 1504.24,846.60"/>
    </edge>
    <edge id=":10939627765_1" function="internal">
        <lane id=":10939627765_1_0" index="0" speed="5.56" length="4.01" shape="1518.65,846.80 1514.86,847.29 1514.70,847.38"/>
    </edge>
    <edge id=":10939627765_2" function="internal">
        <lane id=":10939627765_2_0" index="0" speed="3.65" length="1.44" shape="1518.65,846.80 1517.44,847.58"/>
    </edge>
    <edge id=":10939627765_9" function="internal">
        <lane id=":10939627765_9_0" index="0" speed="5.56" length="10.25" shape="1514.70,847.38 1512.07,848.92 1510.30,851.66 1509.55,855.53"/>
    </edge>
    <edge id=":10939627765_10" function="internal">
        <lane id=":10939627765_10_0" index="0" speed="3.65" length="3.23" shape="1517.44,847.58 1517.03,848.37 1517.42,849.18 1518.60,850.00"/>
    </edge>
    <edge id=":10939627765_3" function="internal">
        <lane id=":10939627765_3_0" index="0" speed="5.56" length="9.25" shape="1512.74,855.71 1513.23,853.18 1514.37,851.38 1516.16,850.32 1518.60,850.00"/>
    </edge>
    <edge id=":10939627765_4" function="internal">
        <lane id=":10939627765_4_0" index="0" speed="5.56" length="14.36" shape="1512.74,855.71 1512.40,851.77 1510.87,848.93 1508.15,847.21 1504.24,846.60"/>
    </edge>
    <edge id=":10939627765_5" function="internal">
        <lane id=":10939627765_5_0" index="0" speed="3.65" length="1.44" shape="1512.74,855.71 1512.01,854.47"/>
    </edge>
    <edge id=":10939627765_11" function="internal">
        <lane id=":10939627765_11_0" index="0" speed="3.65" length="3.23" shape="1512.01,854.47 1511.23,854.03 1510.41,854.38 1509.55,855.53"/>
    </edge>
    <edge id=":10939627765_6" function="internal">
        <lane id=":10939627765_6_0" index="0" speed="5.56" length="9.04" shape="1504.20,849.80 1506.66,850.18 1508.37,851.27 1509.33,853.05 1509.55,855.53"/>
    </edge>
    <edge id=":10939627765_7" function="internal">
        <lane id=":10939627765_7_0" index="0" speed="5.56" length="14.41" shape="1504.20,849.80 1518.60,850.00"/>
    </edge>
    <edge id=":10939627765_8" function="internal">
        <lane id=":10939627765_8_0" index="0" speed="3.65" length="1.44" shape="1504.20,849.80 1505.41,849.01"/>
    </edge>
    <edge id=":10939627765_12" function="internal">
        <lane id=":10939627765_12_0" index="0" speed="3.65" length="3.23" shape="1505.41,849.01 1505.82,848.22 1505.43,847.41 1504.24,846.60"/>
    </edge>
    <edge id=":10939627765_w0" function="walkingarea">
        <lane id=":10939627765_w0_0" index="0" allow="pedestrian" speed="2.78" length="10.08" width="6.40" shape="1518.68,845.20 1518.58,851.60 1516.33,852.04 1515.52,852.62 1514.92,853.44 1514.52,854.50 1514.34,855.80 1507.95,855.44 1507.63,853.22 1507.12,852.43 1506.37,851.87 1505.39,851.52 1504.18,851.40 1504.26,845.00"/>
    </edge>
    <edge id=":10939627766_0" function="internal">
        <lane id=":10939627766_0_0" index="0" speed="5.56" length="9.37" shape="1519.41,1063.37 1517.00,1062.91 1515.25,1061.74 1514.15,1059.86 1513.71,1057.27"/>
    </edge>
    <edge id=":10939627766_1" function="internal">
        <lane id=":10939627766_1_0" index="0" speed="5.56" length="14.38" shape="1519.41,1063.37 1505.04,1062.98"/>
    </edge>
    <edge id=":10939627766_2" function="internal">
        <lane id=":10939627766_2_0" index="0" speed="3.65" length="4.67" shape="1519.41,1063.37 1518.18,1064.13 1517.75,1064.91 1518.12,1065.73 1519.28,1066.57"/>
    </edge>
    <edge id=":10939627766_3" function="internal">
        <lane id=":10939627766_3_0" index="0" speed="5.56" length="14.30" shape="1504.99,1066.18 1519.28,1066.57"/>
    </edge>
    <edge id=":10939627766_4" function="internal">
        <lane id=":10939627766_4_0" index="0" speed="5.56" length="14.40" shape="1504.99,1066.18 1508.93,1065.68 1511.70,1064.02 1513.29,1061.22 1513.71,1057.27"/>
    </edge>
    <edge id=":10939627766_5" function="internal">
        <lane id=":10939627766_5_0" index="0" speed="3.65" length="4.67" shape="1504.99,1066.18 1506.20,1065.40 1506.61,1064.60 1506.23,1063.80 1505.04,1062.98"/>
    </edge>
    <edge id=":10939627766_6" function="internal">
        <lane id=":10939627766_6_0" index="0" speed="5.56" length="9.04" shape="1510.51,1057.39 1510.25,1059.87 1509.25,1061.63 1507.51,1062.66 1505.04,1062.98"/>
    </edge>
    <edge id=":10939627766_7" function="internal">
        <lane id=":10939627766_7_0" index="0" speed="5.56" length="14.25" shape="1510.51,1057.39 1511.19,1061.28 1512.87,1064.11 1515.57,1065.87 1519.28,1066.57"/>
    </edge>
    <edge id=":10939627766_8" function="internal">
        <lane id=":10939627766_8_0" index="0" speed="3.65" length="4.67" shape="1510.51,1057.39 1511.36,1058.56 1512.17,1058.93 1512.96,1058.50 1513.71,1057.27"/>
    </edge>
    <edge id=":10939627766_w0" function="walkingarea">
        <lane id=":10939627766_w0_0" index="0" allow="pedestrian" speed="2.78" length="10.09" width="6.40" shape="1519.47,1061.78 1519.22,1068.17 1504.96,1067.78 1505.07,1061.38 1507.27,1060.97 1508.03,1060.43 1508.55,1059.66 1508.85,1058.67 1508.91,1057.45 1515.31,1057.21 1515.85,1059.67 1516.43,1060.55 1517.23,1061.20 1518.25,1061.60"/>
    </edge>
    <edge id=":11052493591_0" function="internal">
        <lane id=":11052493591_0_0" index="0" speed="3.92" length="2.32" shape="23.36,1188.12 22.74,1188.03 22.28,1187.77 21.96,1187.34 21.79,1186.74"/>
    </edge>
    <edge id=":11052493591_1" function="internal">
        <lane id=":11052493591_1_0" index="0" speed="3.65" length="4.67" shape="23.36,1188.12 22.15,1188.91 21.74,1189.70 22.13,1190.51 23.32,1191.32"/>
    </edge>
    <edge id=":11052493591_2" function="internal">
        <lane id=":11052493591_2_0" index="0" speed="5.56" length="6.96" shape="18.62,1187.16 19.12,1188.96 20.07,1190.26 21.47,1191.04 23.32,1191.32"/>
    </edge>
    <edge id=":11052493591_3" function="internal">
        <lane id=":11052493591_3_0" index="0" speed="3.65" length="4.67" shape="18.62,1187.16 19.57,1188.24 20.42,1188.53 21.16,1188.03 21.79,1186.74"/>
    </edge>
    <edge id=":11052493591_w0" function="walkingarea">
        <lane id=":11052493591_w0_0" index="0" allow="pedestrian" speed="2.78" length="4.07" width="6.40" shape="23.38,1186.53 23.30,1192.92 20.14,1192.28 18.96,1191.50 18.05,1190.42 17.41,1189.04 17.03,1187.37 23.38,1186.53"/>
    </edge>
    <edge id=":11052493596_0" function="internal">
        <lane id=":11052493596_0_0" index="0" speed="5.56" length="15.00" shape="292.64,1054.84 291.92,1051.17 290.84,1047.58 289.52,1044.06 288.04,1040.61"/>
    </edge>
    <edge id=":11052493596_1" function="internal">
        <lane id=":11052493596_1_0" index="0" speed="5.56" length="15.43" shape="292.64,1054.84 291.54,1051.82 289.18,1049.52 285.55,1047.93 280.67,1047.04"/>
    </edge>
    <edge id=":11052493596_2" function="internal">
        <lane id=":11052493596_2_0" index="0" speed="3.67" length="4.74" shape="292.64,1054.84 291.50,1053.92 290.60,1053.78 289.95,1054.41 289.55,1055.82"/>
    </edge>
    <edge id=":11052493596_3" function="internal">
        <lane id=":11052493596_3_0" index="0" speed="5.56" length="11.57" shape="280.36,1050.23 284.13,1050.88 286.92,1052.03 288.72,1053.68 289.55,1055.82"/>
    </edge>
    <edge id=":11052493596_4" function="internal">
        <lane id=":11052493596_4_0" index="0" speed="5.56" length="16.70" shape="280.36,1050.23 285.53,1050.08 288.53,1048.42 289.36,1045.27 288.04,1040.61"/>
    </edge>
    <edge id=":11052493596_5" function="internal">
        <lane id=":11052493596_5_0" index="0" speed="3.65" length="4.67" shape="280.36,1050.23 281.63,1049.55 282.11,1048.79 281.78,1047.96 280.67,1047.04"/>
    </edge>
    <edge id=":11052493596_6" function="internal">
        <lane id=":11052493596_6_0" index="0" speed="5.56" length="9.43" shape="284.97,1041.59 285.72,1044.23 285.26,1046.02 283.57,1046.96 280.67,1047.04"/>
    </edge>
    <edge id=":11052493596_7" function="internal">
        <lane id=":11052493596_7_0" index="0" speed="5.56" length="14.99" shape="284.97,1041.59 286.45,1045.04 287.76,1048.56 288.83,1052.15 289.55,1055.82"/>
    </edge>
    <edge id=":11052493596_8" function="internal">
        <lane id=":11052493596_8_0" index="0" speed="3.66" length="4.70" shape="284.97,1041.59 286.10,1042.50 286.99,1042.63 287.64,1042.01 288.04,1040.61"/>
    </edge>
    <edge id=":11052493596_w0" function="walkingarea">
        <lane id=":11052493596_w0_0" index="0" allow="pedestrian" speed="2.78" length="10.64" width="6.40" shape="294.19,1054.35 288.00,1056.30 286.90,1054.12 285.79,1053.29 284.30,1052.63 282.44,1052.14 280.21,1051.82 280.82,1045.45 283.02,1045.26 283.62,1044.81 283.89,1044.14 283.83,1043.22 283.44,1042.08 289.57,1040.12 290.90,1043.03 291.89,1045.20 292.64,1047.02 293.21,1048.89 293.70,1051.20"/>
    </edge>
    <edge id=":11052493597_0" function="internal">
        <lane id=":11052493597_0_0" index="0" speed="5.56" length="9.84" shape="25.34,1165.80 22.53,1165.41 20.41,1164.38 19.00,1162.69 18.30,1160.35"/>
    </edge>
    <edge id=":11052493597_1" function="internal">
        <lane id=":11052493597_1_0" index="0" speed="5.56" length="14.79" shape="25.34,1165.80 21.23,1166.32 18.48,1168.04 17.08,1170.98 17.03,1175.12"/>
    </edge>
    <edge id=":11052493597_2" function="internal">
        <lane id=":11052493597_2_0" index="0" speed="3.65" length="4.67" shape="25.34,1165.80 24.13,1166.58 23.72,1167.37 24.10,1168.17 25.29,1169.00"/>
    </edge>
    <edge id=":11052493597_3" function="internal">
        <lane id=":11052493597_3_0" index="0" speed="5.56" length="9.05" shape="20.20,1174.70 20.23,1172.17 21.09,1170.37 22.77,1169.31 25.29,1169.00"/>
    </edge>
    <edge id=":11052493597_4" function="internal">
        <lane id=":11052493597_4_0" index="0" speed="5.56" length="14.47" shape="20.20,1174.70 18.30,1160.35"/>
    </edge>
    <edge id=":11052493597_5" function="internal">
        <lane id=":11052493597_5_0" index="0" speed="3.65" length="4.67" shape="20.20,1174.70 19.25,1173.62 18.40,1173.32 17.66,1173.83 17.03,1175.12"/>
    </edge>
    <edge id=":11052493597_6" function="internal">
        <lane id=":11052493597_6_0" index="0" speed="5.56" length="14.47" shape="15.13,1160.78 17.03,1175.12"/>
    </edge>
    <edge id=":11052493597_7" function="internal">
        <lane id=":11052493597_7_0" index="0" speed="5.56" length="14.45" shape="15.13,1160.78 16.16,1164.31 18.20,1166.86 21.24,1168.42 25.29,1169.00"/>
    </edge>
    <edge id=":11052493597_8" function="internal">
        <lane id=":11052493597_8_0" index="0" speed="3.65" length="4.67" shape="15.13,1160.78 16.08,1161.86 16.92,1162.15 17.66,1161.65 18.30,1160.35"/>
    </edge>
    <edge id=":11052493597_w0" function="walkingarea">
        <lane id=":11052493597_w0_0" index="0" allow="pedestrian" speed="2.78" length="10.22" width="6.40" shape="25.37,1164.20 25.26,1170.60 23.10,1171.00 22.39,1171.53 21.94,1172.30 21.74,1173.28 21.79,1174.49 15.44,1175.33 13.54,1160.99 19.88,1160.14 20.73,1162.36 21.52,1163.14 22.56,1163.71 23.84,1164.06"/>
    </edge>
    <edge id=":11052493599_0" function="internal">
        <lane id=":11052493599_0_0" index="0" speed="5.56" length="12.39" shape="202.38,1180.48 199.15,1179.53 196.47,1178.49 194.04,1177.04 191.56,1174.84"/>
    </edge>
    <edge id=":11052493599_1" function="internal">
        <lane id=":11052493599_1_0" index="0" speed="5.56" length="13.30" shape="202.38,1180.48 198.08,1179.73 194.98,1180.25 193.08,1182.06 192.38,1185.15"/>
    </edge>
    <edge id=":11052493599_2" function="internal">
        <lane id=":11052493599_2_0" index="0" speed="3.65" length="4.67" shape="202.38,1180.48 201.00,1180.92 200.40,1181.58 200.57,1182.46 201.50,1183.56"/>
    </edge>
    <edge id=":11052493599_3" function="internal">
        <lane id=":11052493599_3_0" index="0" speed="5.46" length="7.20" shape="195.58,1185.23 195.98,1183.88 197.10,1183.15 198.94,1183.04 201.50,1183.56"/>
    </edge>
    <edge id=":11052493599_4" function="internal">
        <lane id=":11052493599_4_0" index="0" speed="5.56" length="11.45" shape="195.58,1185.23 195.39,1182.31 194.65,1179.60 193.37,1177.11 191.56,1174.84"/>
    </edge>
    <edge id=":11052493599_5" function="internal">
        <lane id=":11052493599_5_0" index="0" speed="3.65" length="4.67" shape="195.58,1185.23 194.81,1184.01 194.02,1183.59 193.21,1183.97 192.38,1185.15"/>
    </edge>
    <edge id=":11052493599_6" function="internal">
        <lane id=":11052493599_6_0" index="0" speed="5.56" length="8.91" shape="189.26,1177.06 190.67,1178.83 191.66,1180.76 192.23,1182.87 192.38,1185.15"/>
    </edge>
    <edge id=":11052493599_7" function="internal">
        <lane id=":11052493599_7_0" index="0" speed="5.56" length="14.03" shape="189.26,1177.06 191.96,1179.40 194.88,1181.14 198.05,1182.47 201.50,1183.56"/>
    </edge>
    <edge id=":11052493599_8" function="internal">
        <lane id=":11052493599_8_0" index="0" speed="3.65" length="4.67" shape="189.26,1177.06 190.66,1177.37 191.52,1177.10 191.81,1176.26 191.56,1174.84"/>
    </edge>
    <edge id=":11052493599_w0" function="walkingarea">
        <lane id=":11052493599_w0_0" index="0" allow="pedestrian" speed="2.78" length="9.18" width="6.40" shape="202.82,1178.95 201.06,1185.10 198.91,1184.93 198.15,1185.28 197.60,1185.90 197.25,1186.81 197.11,1188.00 190.71,1187.84 190.69,1185.68 190.50,1183.75 190.15,1182.03 189.63,1180.53 188.95,1179.24 188.11,1178.18 192.70,1173.73 194.45,1175.42 195.87,1176.55 197.19,1177.28 198.64,1177.81 200.44,1178.30"/>
    </edge>
    <edge id=":11052493600_0" function="internal">
        <lane id=":11052493600_0_0" index="0" speed="5.56" length="9.16" shape="67.49,1188.68 65.05,1188.29 63.30,1187.20 62.24,1185.40 61.86,1182.89"/>
    </edge>
    <edge id=":11052493600_1" function="internal">
        <lane id=":11052493600_1_0" index="0" speed="5.56" length="14.40" shape="67.49,1188.68 53.09,1188.50"/>
    </edge>
    <edge id=":11052493600_2" function="internal">
        <lane id=":11052493600_2_0" index="0" speed="3.65" length="4.67" shape="67.49,1188.68 66.28,1189.46 65.87,1190.26 66.26,1191.06 67.45,1191.88"/>
    </edge>
    <edge id=":11052493600_3" function="internal">
        <lane id=":11052493600_3_0" index="0" speed="5.56" length="14.40" shape="53.05,1191.70 67.45,1191.88"/>
    </edge>
    <edge id=":11052493600_4" function="internal">
        <lane id=":11052493600_4_0" index="0" speed="5.56" length="14.29" shape="53.05,1191.70 56.95,1191.19 59.71,1189.55 61.35,1186.78 61.86,1182.89"/>
    </edge>
    <edge id=":11052493600_5" function="internal">
        <lane id=":11052493600_5_0" index="0" speed="3.65" length="4.67" shape="53.05,1191.70 54.26,1190.91 54.67,1190.12 54.28,1189.31 53.09,1188.50"/>
    </edge>
    <edge id=":11052493600_6" function="internal">
        <lane id=":11052493600_6_0" index="0" speed="5.56" length="9.03" shape="58.66,1182.93 58.34,1185.39 57.30,1187.14 55.55,1188.18 53.09,1188.50"/>
    </edge>
    <edge id=":11052493600_7" function="internal">
        <lane id=":11052493600_7_0" index="0" speed="5.56" length="14.23" shape="58.66,1182.93 59.25,1186.80 60.91,1189.59 63.65,1191.28 67.45,1191.88"/>
    </edge>
    <edge id=":11052493600_8" function="internal">
        <lane id=":11052493600_8_0" index="0" speed="3.65" length="4.67" shape="58.66,1182.93 59.47,1184.12 60.28,1184.51 61.07,1184.10 61.86,1182.89"/>
    </edge>
    <edge id=":11052493600_w0" function="walkingarea">
        <lane id=":11052493600_w0_0" index="0" allow="pedestrian" speed="2.78" length="10.05" width="6.40" shape="67.51,1187.08 67.43,1193.48 53.03,1193.30 53.11,1186.90 55.33,1186.48 56.10,1185.94 56.64,1185.17 56.96,1184.17 57.06,1182.95 63.46,1182.87 63.93,1185.19 64.50,1186.00 65.28,1186.59 66.29,1186.95"/>
    </edge>
    <edge id=":11052493601_0" function="internal">
        <lane id=":11052493601_0_0" index="0" speed="5.56" length="14.40" shape="67.40,1166.54 52.99,1166.28"/>
    </edge>
    <edge id=":11052493601_1" function="internal">
        <lane id=":11052493601_1_0" index="0" speed="5.56" length="14.31" shape="67.40,1166.54 63.49,1167.03 60.71,1168.66 59.07,1171.42 58.56,1175.33"/>
    </edge>
    <edge id=":11052493601_2" function="internal">
        <lane id=":11052493601_2_0" index="0" speed="3.65" length="4.67" shape="67.40,1166.54 66.18,1167.32 65.77,1168.11 66.15,1168.92 67.34,1169.74"/>
    </edge>
    <edge id=":11052493601_3" function="internal">
        <lane id=":11052493601_3_0" index="0" speed="5.56" length="9.03" shape="61.76,1175.29 62.08,1172.82 63.12,1171.08 64.87,1170.05 67.34,1169.74"/>
    </edge>
    <edge id=":11052493601_4" function="internal">
        <lane id=":11052493601_4_0" index="0" speed="5.56" length="14.24" shape="61.76,1175.29 61.17,1171.41 59.51,1168.61 56.79,1166.90 52.99,1166.28"/>
    </edge>
    <edge id=":11052493601_5" function="internal">
        <lane id=":11052493601_5_0" index="0" speed="3.65" length="4.67" shape="61.76,1175.29 60.95,1174.10 60.14,1173.71 59.35,1174.12 58.56,1175.33"/>
    </edge>
    <edge id=":11052493601_6" function="internal">
        <lane id=":11052493601_6_0" index="0" speed="5.56" length="9.19" shape="52.94,1169.48 55.37,1169.89 57.12,1170.99 58.18,1172.81 58.56,1175.33"/>
    </edge>
    <edge id=":11052493601_7" function="internal">
        <lane id=":11052493601_7_0" index="0" speed="5.56" length="14.40" shape="52.94,1169.48 67.34,1169.74"/>
    </edge>
    <edge id=":11052493601_8" function="internal">
        <lane id=":11052493601_8_0" index="0" speed="3.65" length="4.67" shape="52.94,1169.48 54.15,1168.71 54.57,1167.91 54.18,1167.11 52.99,1166.28"/>
    </edge>
    <edge id=":11052493601_w0" function="walkingarea">
        <lane id=":11052493601_w0_0" index="0" allow="pedestrian" speed="2.78" length="10.06" width="6.40" shape="67.42,1164.94 67.31,1171.34 65.09,1171.74 64.32,1172.29 63.78,1173.05 63.46,1174.05 63.36,1175.27 56.96,1175.35 56.49,1173.01 55.92,1172.19 55.14,1171.59 54.13,1171.22 52.91,1171.08 53.02,1164.69"/>
    </edge>
    <edge id=":11052493602_0" function="internal">
        <lane id=":11052493602_0_0" index="0" speed="5.56" length="10.29" shape="111.80,1160.75 110.76,1163.61 109.26,1165.64 107.31,1166.84 104.90,1167.20"/>
    </edge>
    <edge id=":11052493602_1" function="internal">
        <lane id=":11052493602_1_0" index="0" speed="5.56" length="15.13" shape="111.80,1160.75 111.37,1165.02 112.49,1168.10 115.17,1169.98 119.41,1170.66"/>
    </edge>
    <edge id=":11052493602_2" function="internal">
        <lane id=":11052493602_2_0" index="0" speed="3.65" length="4.67" shape="111.80,1160.75 112.29,1162.11 112.97,1162.69 113.84,1162.50 114.91,1161.52"/>
    </edge>
    <edge id=":11052493602_3" function="internal">
        <lane id=":11052493602_3_0" index="0" speed="5.56" length="9.07" shape="119.47,1167.46 116.93,1167.05 115.32,1165.93 114.65,1164.08 114.91,1161.52"/>
    </edge>
    <edge id=":11052493602_4" function="internal">
        <lane id=":11052493602_4_0" index="0" speed="5.56" length="14.57" shape="119.47,1167.46 104.90,1167.20"/>
    </edge>
    <edge id=":11052493602_5" function="internal">
        <lane id=":11052493602_5_0" index="0" speed="3.65" length="4.67" shape="119.47,1167.46 118.25,1168.24 117.84,1169.04 118.22,1169.84 119.41,1170.66"/>
    </edge>
    <edge id=":11052493602_6" function="internal">
        <lane id=":11052493602_6_0" index="0" speed="5.56" length="14.57" shape="104.85,1170.40 119.41,1170.66"/>
    </edge>
    <edge id=":11052493602_7" function="internal">
        <lane id=":11052493602_7_0" index="0" speed="5.56" length="14.64" shape="104.85,1170.40 108.41,1169.90 111.27,1168.25 113.44,1165.46 114.91,1161.52"/>
    </edge>
    <edge id=":11052493602_8" function="internal">
        <lane id=":11052493602_8_0" index="0" speed="3.65" length="4.67" shape="104.85,1170.40 106.06,1169.63 106.47,1168.83 106.09,1168.03 104.90,1167.20"/>
    </edge>
    <edge id=":11052493602_w0" function="walkingarea">
        <lane id=":11052493602_w0_0" index="0" allow="pedestrian" speed="2.78" length="10.35" width="6.40" shape="110.25,1160.37 116.46,1161.91 116.37,1164.08 116.74,1164.84 117.38,1165.39 118.30,1165.73 119.49,1165.86 119.38,1172.26 104.82,1172.00 104.93,1165.60 107.30,1165.05 108.26,1164.33 109.07,1163.31 109.74,1161.99"/>
    </edge>
    <edge id=":11052493603_0" function="internal">
        <lane id=":11052493603_0_0" index="0" speed="5.56" length="16.93" shape="135.72,1062.80 132.06,1079.34"/>
    </edge>
    <edge id=":11052493603_1" function="internal">
        <lane id=":11052493603_1_0" index="0" speed="5.56" length="17.57" shape="135.72,1062.80 135.88,1066.85 137.17,1071.27 139.07,1075.58 141.06,1079.29"/>
    </edge>
    <edge id=":11052493603_2" function="internal">
        <lane id=":11052493603_2_0" index="0" speed="3.65" length="4.67" shape="135.72,1062.80 136.32,1064.11 137.05,1064.64 137.91,1064.37 138.88,1063.31"/>
    </edge>
    <edge id=":11052493603_3" function="internal">
        <lane id=":11052493603_3_0" index="0" speed="5.56" length="15.49" shape="143.84,1077.70 141.90,1074.31 140.13,1070.73 138.98,1067.03 138.88,1063.31"/>
    </edge>
    <edge id=":11052493603_4" function="internal">
        <lane id=":11052493603_4_0" index="0" speed="5.56" length="19.58" shape="143.84,1077.70 140.13,1072.61 136.93,1071.19 134.24,1073.44 132.06,1079.34"/>
    </edge>
    <edge id=":11052493603_5" function="internal">
        <lane id=":11052493603_5_0" index="0" speed="3.65" length="4.67" shape="143.84,1077.70 142.55,1077.05 141.65,1077.10 141.16,1077.85 141.06,1079.29"/>
    </edge>
    <edge id=":11052493603_6" function="internal">
        <lane id=":11052493603_6_0" index="0" speed="5.47" length="9.80" shape="135.17,1080.11 136.26,1077.16 137.60,1076.03 139.20,1076.74 141.06,1079.29"/>
    </edge>
    <edge id=":11052493603_7" function="internal">
        <lane id=":11052493603_7_0" index="0" speed="5.56" length="17.21" shape="135.17,1080.11 138.88,1063.31"/>
    </edge>
    <edge id=":11052493603_8" function="internal">
        <lane id=":11052493603_8_0" index="0" speed="3.65" length="4.67" shape="135.17,1080.11 134.68,1078.75 134.00,1078.17 133.13,1078.37 132.06,1079.34"/>
    </edge>
    <edge id=":11052493603_w0" function="walkingarea">
        <lane id=":11052493603_w0_0" index="0" allow="pedestrian" speed="2.78" length="12.00" width="6.40" shape="134.14,1062.55 140.46,1063.56 140.19,1066.55 140.42,1068.76 141.11,1070.55 142.18,1072.26 143.57,1074.26 145.23,1076.90 139.67,1080.08 138.46,1078.59 137.94,1078.45 137.48,1078.73 137.07,1079.41 136.72,1080.50 130.51,1078.95"/>
    </edge>
    <edge id=":11052493604_0" function="internal">
        <lane id=":11052493604_0_0" index="0" speed="5.56" length="14.47" shape="148.36,1034.54 133.89,1034.39"/>
    </edge>
    <edge id=":11052493604_1" function="internal">
        <lane id=":11052493604_1_0" index="0" speed="5.56" length="14.45" shape="148.36,1034.54 144.71,1035.06 141.90,1036.72 139.92,1039.51 138.79,1043.43"/>
    </edge>
    <edge id=":11052493604_2" function="internal">
        <lane id=":11052493604_2_0" index="0" speed="3.65" length="4.67" shape="148.36,1034.54 147.15,1035.33 146.74,1036.12 147.13,1036.93 148.32,1037.74"/>
    </edge>
    <edge id=":11052493604_3" function="internal">
        <lane id=":11052493604_3_0" index="0" speed="5.56" length="9.82" shape="141.95,1043.93 142.72,1041.20 144.04,1039.26 145.91,1038.11 148.32,1037.74"/>
    </edge>
    <edge id=":11052493604_4" function="internal">
        <lane id=":11052493604_4_0" index="0" speed="5.56" length="14.78" shape="141.95,1043.93 142.01,1039.80 140.69,1036.83 137.98,1035.02 133.89,1034.39"/>
    </edge>
    <edge id=":11052493604_5" function="internal">
        <lane id=":11052493604_5_0" index="0" speed="3.65" length="4.67" shape="141.95,1043.93 141.35,1042.62 140.62,1042.10 139.77,1042.37 138.79,1043.43"/>
    </edge>
    <edge id=":11052493604_6" function="internal">
        <lane id=":11052493604_6_0" index="0" speed="5.56" length="9.05" shape="133.86,1037.59 136.36,1037.98 138.02,1039.08 138.83,1040.90 138.79,1043.43"/>
    </edge>
    <edge id=":11052493604_7" function="internal">