<?xml version="1.0" encoding="UTF-8"?>

<!-- generated on 2024-11-28 15:21:19 by Eclipse SUMO sumo Version 1.21.0
-->

<sumoConfiguration xmlns:xsi="http://www.w3.org/2001/XMLSchema-instance" xsi:noNamespaceSchemaLocation="http://sumo.dlr.de/xsd/sumoConfiguration.xsd">

    <input>
        <net-file value="tinker.net.xml"/>
        <route-files value="tinker-final.rou.xml"/>
        <additional-files value="tinker-final.add.xml"/>
    </input>

</sumoConfiguration>
