<?xml version="1.0" encoding="UTF-8"?>

<!-- generated on 2024-11-28 15:20:15 by Eclipse SUMO netedit Version 1.21.0
<neteditConfiguration xmlns:xsi="http://www.w3.org/2001/XMLSchema-instance" xsi:noNamespaceSchemaLocation="http://sumo.dlr.de/xsd/neteditConfiguration.xsd">

    <input>
        <additional-files value="C:\Users\hp\sumo shivam\tinker final\tinker-final.add.xml"/>
        <route-files value="C:\Users\hp\sumo shivam\tinker final\tinker-final.rou.xml"/>
        <data-files value="C:\Users\hp\sumo shivam\tinker final\tinker-final.dat.xml"/>
        <sumo-net-file value="C:\Users\hp\sumo shivam\tinker final\tinker.net.xml"/>
    </input>

    <processing>
        <geometry.min-radius.fix.railways value="false"/>
        <geometry.max-grade.fix value="false"/>
        <offset.disable-normalization value="true"/>
        <lefthand value="1"/>
    </processing>

    <junctions>
        <no-internal-links value="false"/>
        <no-turnarounds value="true"/>
        <junctions.corner-detail value="5"/>
        <junctions.limit-turn-speed value="5.50"/>
        <rectangular-lane-cut value="0"/>
    </junctions>

    <pedestrian>
        <walkingareas value="1"/>
    </pedestrian>

</neteditConfiguration>
-->

<edges version="1.20" xmlns:xsi="http://www.w3.org/2001/XMLSchema-instance" xsi:noNamespaceSchemaLocation="http://sumo.dlr.de/xsd/edges_file.xsd">
    <location netOffset="-8512055.47,-3627567.05" convBoundary="0.00,0.00,1813.81,1492.45" origBoundary="76.465095,30.960089,76.481389,30.971585" projParameter="+proj=merc +a=6378137 +b=6378137 +lat_ts=0.0 +lon_0=0.0 +x_0=0.0 +y_0=0 +k=1.0 +units=m +nadgrids=@null +wktext +no_defs"/>

    <edge id="-1032481446#0" from="9513732584" to="9513732576" priority="1" type="highway.service" numLanes="1" speed="5.56" shape="916.49,1413.41 893.43,1413.41 872.93,1412.97">
        <lane index="0">
            <param key="origId" value="1032481446 1032481447"/>
        </lane>
    </edge>
    <edge id="-1032481446#1" from="9513069015" to="9513732584" priority="1" type="highway.service" numLanes="1" speed="5.56" shape="994.91,1239.42 991.26,1402.92 986.38,1410.41 981.50,1413.41 916.49,1413.41">
        <lane index="0">
            <param key="origId" value="1032481446"/>
        </lane>
    </edge>
    <edge id="-1032481447#0" from="9513732576" to="9513732584" priority="1" type="highway.service" numLanes="1" speed="5.56" shape="872.93,1412.97 893.43,1413.41 916.49,1413.41">
        <lane index="0">
            <param key="origId" value="1032481447 1032481446"/>
        </lane>
    </edge>
    <edge id="-1032481447#1" from="9513069019" to="9513732576" priority="1" type="highway.service" numLanes="1" speed="5.56" shape="802.55,1236.39 800.82,1399.59 802.49,1405.57 813.77,1411.67 872.93,1412.97">
        <lane index="0">
            <param key="origId" value="1032481447"/>
        </lane>
    </edge>
    <edge id="-1032481448" from="9513069015" to="9513069019" priority="1" type="highway.service" numLanes="1" speed="5.56">
        <lane index="0">
            <param key="origId" value="1032481448"/>
        </lane>
    </edge>
    <edge id="-1032481449#0" from="9513402263" to="9513069019" priority="1" type="highway.service" numLanes="1" speed="5.56">
        <lane index="0">
            <param key="origId" value="1032481449"/>
        </lane>
    </edge>
    <edge id="-1032481449#1" from="9514233025" to="9513402263" priority="1" type="highway.service" numLanes="1" speed="5.56" shape="896.04,1159.59 828.53,1158.62 817.06,1158.62 812.08,1160.10 807.82,1162.87 804.13,1167.69 803.01,1171.56 803.01,1184.21 802.95,1191.72">
        <lane index="0">
            <param key="origId" value="1032481449"/>
        </lane>
    </edge>
    <edge id="-1032481449#2" from="9513069015" to="9514233025" priority="1" type="highway.service" numLanes="1" speed="5.56" shape="994.91,1239.42 995.61,1181.50 994.74,1169.85 989.13,1162.51 979.63,1160.78 896.04,1159.59">
        <lane index="0">
            <param key="origId" value="1032481449"/>
        </lane>
    </edge>
    <edge id="-1032481450#1" from="11052493600" to="11052493591" priority="1" type="highway.service" numLanes="1" speed="5.56">
        <lane index="0">
            <param key="origId" value="1032481450"/>
        </lane>
    </edge>
    <edge id="-1032481450#2" from="9513069037" to="11052493600" priority="1" type="highway.service" numLanes="1" speed="5.56" shape="193.87,1189.64 77.73,1190.41 60.35,1190.19">
        <lane index="0">
            <param key="origId" value="1032481450"/>
        </lane>
    </edge>
    <edge id="-1032481450#3" from="9516401595" to="9513069037" priority="1" type="highway.service" numLanes="1" speed="5.56" shape="259.84,1219.03 248.03,1217.18 214.29,1200.20 193.87,1189.64">
        <lane index="0">
            <param key="origId" value="1032481450"/>
        </lane>
    </edge>
    <edge id="-1032481450#4" from="11066077902" to="9516401595" priority="1" type="highway.service" numLanes="1" speed="5.56" shape="372.12,1223.62 357.12,1223.36 308.08,1224.03 273.69,1222.40 259.84,1219.03">
        <lane index="0">
            <param key="origId" value="1032481450"/>
        </lane>
    </edge>
    <edge id="-1032481450#5" from="11066077904" to="11066077902" priority="1" type="highway.service" numLanes="1" speed="5.56">
        <lane index="0">
            <param key="origId" value="1032481450"/>
        </lane>
    </edge>
    <edge id="-1032481450#6" from="11752291200" to="11066077904" priority="1" type="highway.service" numLanes="1" speed="5.56">
        <lane index="0">
            <param key="origId" value="1032481450"/>
        </lane>
    </edge>
    <edge id="-1032481450#7" from="9513069041" to="11752291200" priority="1" type="highway.service" numLanes="1" speed="5.56">
        <lane index="0">
            <param key="origId" value="1032481450"/>
        </lane>
    </edge>
    <edge id="-1032481450#8" from="9513402272" to="9513069041" priority="1" type="highway.service" numLanes="1" speed="5.56">
        <lane index="0">
            <param key="origId" value="1032481450"/>
        </lane>
    </edge>
    <edge id="-1032481450#9" from="9513069019" to="9513402272" priority="1" type="highway.service" numLanes="1" speed="5.56">
        <lane index="0">
            <param key="origId" value="1032481450"/>
        </lane>
    </edge>
    <edge id="-1032481452#1" from="9513069047" to="9513069048" priority="1" type="highway.service" numLanes="1" speed="5.56">
        <lane index="0">
            <param key="origId" value="1032481452"/>
        </lane>
    </edge>
    <edge id="-1032481453" from="9513069049" to="9513069048" priority="1" type="highway.service" numLanes="1" speed="5.56">
        <lane index="0">
            <param key="origId" value="1032481453"/>
        </lane>
    </edge>
    <edge id="-1032481454#0" from="9513069069" to="9513069015" priority="1" type="highway.service" numLanes="1" speed="5.56" shape="1372.58,1245.10 1305.87,1244.77 1118.55,1241.91 994.91,1239.42">
        <lane index="0">
            <param key="origId" value="1032481454"/>
        </lane>
    </edge>
    <edge id="-1032481454#1" from="9513432153" to="9513069069" priority="1" type="highway.service" numLanes="1" speed="5.56" shape="1398.05,1148.36 1400.39,1167.44 1407.27,1192.64 1418.14,1218.99 1425.59,1235.03 1424.44,1241.34 1421.02,1245.35 1372.58,1245.10">
        <lane index="0">
            <param key="origId" value="1032481454"/>
        </lane>
    </edge>
    <edge id="-1032481454#2" from="9513432151" to="9513432153" priority="1" type="highway.service" numLanes="1" speed="5.56" shape="1396.95,1114.91 1396.95,1139.37 1398.05,1148.36">
        <lane index="0">
            <param key="origId" value="1032481454"/>
        </lane>
    </edge>
    <edge id="-1032481454#3" from="9513432149" to="9513432151" priority="1" type="highway.service" numLanes="1" speed="5.56" shape="1399.86,1076.94 1396.95,1098.13 1396.95,1114.91">
        <lane index="0">
            <param key="origId" value="1032481454"/>
        </lane>
    </edge>
    <edge id="-1032481454#4" from="11752291196" to="9513432149" priority="1" type="highway.service" numLanes="1" speed="5.56">
        <lane index="0">
            <param key="origId" value="1032481454"/>
        </lane>
    </edge>
    <edge id="-1032481454#5" from="9513432162" to="11752291196" priority="1" type="highway.service" numLanes="1" speed="5.56" shape="1412.37,1035.95 1402.10,1060.66 1401.80,1062.86">
        <lane index="0">
            <param key="origId" value="1032481454"/>
        </lane>
    </edge>
    <edge id="-1032481454#6" from="9513432159" to="9513432162" priority="1" type="highway.service" numLanes="1" speed="5.56" shape="1422.25,1006.88 1422.15,1009.68 1414.71,1030.30 1412.37,1035.95">
        <lane index="0">
            <param key="origId" value="1032481454"/>
        </lane>
    </edge>
    <edge id="-1032481454#7" from="9513432146" to="9513432159" priority="1" type="highway.service" numLanes="1" speed="5.56" shape="1355.80,965.42 1384.46,965.96 1392.13,967.66 1398.31,971.92 1415.33,992.15 1422.36,1003.85 1422.25,1006.88">
        <lane index="0">
            <param key="origId" value="1032481454"/>
        </lane>
    </edge>
    <edge id="-1032481455#0" from="9513069084" to="9513069069" priority="1" type="highway.service" numLanes="1" speed="5.56">
        <lane index="0">
            <param key="origId" value="1032481455"/>
        </lane>
    </edge>
    <edge id="-1032481455#1" from="9513069075" to="9513069084" priority="1" type="highway.service" numLanes="1" speed="5.56">
        <lane index="0">
            <param key="origId" value="1032481455"/>
        </lane>
    </edge>
    <edge id="-1032481455#2" from="9513069077" to="9513069075" priority="1" type="highway.service" numLanes="1" speed="5.56">
        <lane index="0">
            <param key="origId" value="1032481455"/>
        </lane>
    </edge>
    <edge id="-1032481455#3" from="9513069079" to="9513069077" priority="1" type="highway.service" numLanes="1" speed="5.56">
        <lane index="0">
            <param key="origId" value="1032481455"/>
        </lane>
    </edge>
    <edge id="-1032481455#4" from="9513069080" to="9513069079" priority="1" type="highway.service" numLanes="1" speed="5.56" shape="1489.17,1400.34 1488.44,1440.26 1485.25,1443.26 1372.99,1441.75 1370.45,1440.46 1370.91,1399.00">
        <lane index="0">
            <param key="origId" value="1032481455"/>
        </lane>
    </edge>
    <edge id="-1032481455#5" from="9513069078" to="9513069080" priority="1" type="highway.service" numLanes="1" speed="5.56">
        <lane index="0">
            <param key="origId" value="1032481455"/>
        </lane>
    </edge>
    <edge id="-1032481455#6" from="9513069076" to="9513069078" priority="1" type="highway.service" numLanes="1" speed="5.56">
        <lane index="0">
            <param key="origId" value="1032481455"/>
        </lane>
    </edge>
    <edge id="-1032481455#7" from="9513069073" to="9513069076" priority="1" type="highway.service" numLanes="1" speed="5.56">
        <lane index="0">
            <param key="origId" value="1032481455"/>
        </lane>
    </edge>
    <edge id="-1032481456" from="9513069076" to="9513069075" priority="1" type="highway.service" numLanes="1" speed="5.56">
        <lane index="0">
            <param key="origId" value="1032481456"/>
        </lane>
    </edge>
    <edge id="-1032481457" from="9513069078" to="9513069077" priority="1" type="highway.service" numLanes="1" speed="5.56">
        <lane index="0">
            <param key="origId" value="1032481457"/>
        </lane>
    </edge>
    <edge id="-1032481458" from="9513069080" to="9513069079" priority="1" type="highway.service" numLanes="1" speed="5.56">
        <lane index="0">
            <param key="origId" value="1032481458"/>
        </lane>
    </edge>
    <edge id="-1032481459#0" from="9513069073" to="9513069076" priority="1" type="highway.service" numLanes="1" speed="5.56" shape="1491.43,1277.65 1576.24,1279.14 1575.24,1312.96 1570.27,1318.43 1490.71,1316.35">
        <lane index="0">
            <param key="origId" value="1032481459"/>
        </lane>
    </edge>
    <edge id="-1032481459#1" from="9513069084" to="9513069073" priority="1" type="highway.service" numLanes="1" speed="5.56">
        <lane index="0">
            <param key="origId" value="1032481459"/>
        </lane>
    </edge>
    <edge id="-1032517872#0" from="9513402251" to="9513402264" priority="1" type="highway.service" numLanes="1" speed="5.56">
        <lane index="0">
            <param key="origId" value="1032517872"/>
        </lane>
    </edge>
    <edge id="-1032517872#1" from="9513732530" to="9513402251" priority="1" type="highway.service" numLanes="1" speed="5.56" shape="726.92,1061.48 668.27,1061.48 664.83,1063.49 663.88,1141.55">
        <lane index="0">
            <param key="origId" value="1032517872"/>
        </lane>
    </edge>
    <edge id="-1032517872#2" from="9513732537" to="9513732530" priority="1" type="highway.service" numLanes="1" speed="5.56" shape="747.50,1061.63 731.28,1061.48 726.92,1061.48">
        <lane index="0">
            <param key="origId" value="1032517872"/>
        </lane>
    </edge>
    <edge id="-1032517872#3" from="9513402252" to="9513732537" priority="1" type="highway.service" numLanes="1" speed="5.56" shape="794.98,1084.84 795.21,1064.92 791.77,1062.05 747.50,1061.63">
        <lane index="0">
            <param key="origId" value="1032517872"/>
        </lane>
    </edge>
    <edge id="-1032517872#4" from="9514233027" to="9513402252" priority="1" type="highway.service" numLanes="1" speed="5.56">
        <lane index="0">
            <param key="origId" value="1032517872"/>
        </lane>
    </edge>
    <edge id="-1032517872#5" from="9513402251" to="9514233027" priority="1" type="highway.service" numLanes="1" speed="5.56" shape="663.88,1141.55 722.74,1141.38 791.19,1143.11 794.34,1141.10 794.48,1130.96">
        <lane index="0">
            <param key="origId" value="1032517872"/>
        </lane>
    </edge>
    <edge id="-1032517873#0" from="9514233026" to="9513402252" priority="1" type="highway.service" numLanes="1" speed="5.56">
        <lane index="0">
            <param key="origId" value="1032517873"/>
        </lane>
    </edge>
    <edge id="-1032517873#1" from="9514233028" to="9514233026" priority="1" type="highway.service" numLanes="1" speed="5.56" shape="1010.16,1135.06 1011.00,1086.58 898.07,1085.68">
        <lane index="0">
            <param key="origId" value="1032517873"/>
        </lane>
    </edge>
    <edge id="-1032517873#2" from="9514211682" to="9514233028" priority="1" type="highway.service" numLanes="1" speed="5.56" shape="1033.78,1144.93 1009.99,1144.50 1010.16,1135.06">
        <lane index="0">
            <param key="origId" value="1032517873"/>
        </lane>
    </edge>
    <edge id="-1032517873#3" from="9513402256" to="9514211682" priority="1" type="highway.service" numLanes="1" speed="5.56" shape="1127.84,1146.47 1064.49,1145.49 1033.78,1144.93">
        <lane index="0">
            <param key="origId" value="1032517873"/>
        </lane>
    </edge>
    <edge id="-1032517873#4" from="9513402260" to="9513402256" priority="1" type="highway.service" numLanes="1" speed="5.56" shape="1222.52,1147.48 1222.56,1159.34 1222.89,1178.15 1128.17,1176.50 1127.84,1146.47">
        <lane index="0">
            <param key="origId" value="1032517873"/>
        </lane>
    </edge>
    <edge id="-1032517873#5" from="9513402256" to="9513402260" priority="1" type="highway.service" numLanes="1" speed="5.56" shape="1127.84,1146.47 1129.51,1100.62 1223.21,1102.59 1222.52,1147.48">
        <lane index="0">
            <param key="origId" value="1032517873"/>
        </lane>
    </edge>
    <edge id="-1032517874#0" from="9513402271" to="9513402263" priority="1" type="highway.service" numLanes="1" speed="5.56">
        <lane index="0">
            <param key="origId" value="1032517874"/>
        </lane>
    </edge>
    <edge id="-1032517874#1" from="9513402265" to="9513402271" priority="1" type="highway.service" numLanes="1" speed="5.56">
        <lane index="0">
            <param key="origId" value="1032517874"/>
        </lane>
    </edge>
    <edge id="-1032517874#2" from="9513402264" to="9513402265" priority="1" type="highway.service" numLanes="1" speed="5.56">
        <lane index="0">
            <param key="origId" value="1032517874"/>
        </lane>
    </edge>
    <edge id="-1032517877#0" from="10939627761" to="9513402274" priority="1" type="highway.service" numLanes="1" speed="5.56" shape="459.73,831.06 435.44,830.98 176.52,828.97">
        <lane index="0">
            <param key="origId" value="1032517877"/>
        </lane>
    </edge>
    <edge id="-1032517877#1" from="9513418829" to="10939627761" priority="1" type="highway.service" numLanes="1" speed="5.56">
        <lane index="0">
            <param key="origId" value="1032517877"/>
        </lane>
    </edge>
    <edge id="-1032517877#10" from="9513402282" to="11752291195" priority="1" type="highway.service" numLanes="1" speed="5.56">
        <lane index="0">
            <param key="origId" value="1032517877"/>
        </lane>
    </edge>
    <edge id="-1032517877#11" from="11752291173" to="9513402282" priority="1" type="highway.service" numLanes="1" speed="5.56">
        <lane index="0">
            <param key="origId" value="1032517877"/>
        </lane>
    </edge>
    <edge id="-1032517877#12" from="9513432147" to="11752291173" priority="1" type="highway.service" numLanes="1" speed="5.56">
        <lane index="0">
            <param key="origId" value="1032517877"/>
        </lane>
    </edge>
    <edge id="-1032517877#13" from="11752291176" to="9513432147" priority="1" type="highway.service" numLanes="1" speed="5.56" shape="1426.54,847.21 1359.46,846.37 1356.57,846.30">
        <lane index="0">
            <param key="origId" value="1032517877"/>
        </lane>
    </edge>
    <edge id="-1032517877#14" from="10939627765" to="11752291176" priority="1" type="highway.service" numLanes="1" speed="5.56">
        <lane index="0">
            <param key="origId" value="1032517877"/>
        </lane>
    </edge>
    <edge id="-1032517877#15" from="11752291180" to="10939627765" priority="1" type="highway.service" numLanes="1" speed="5.56">
        <lane index="0">
            <param key="origId" value="1032517877"/>
        </lane>
    </edge>
    <edge id="-1032517877#2" from="11752291205" to="9513418829" priority="1" type="highway.service" numLanes="1" speed="5.56">
        <lane index="0">
            <param key="origId" value="1032517877"/>
        </lane>
    </edge>
    <edge id="-1032517877#3" from="9513402316" to="11752291205" priority="1" type="highway.service" numLanes="1" speed="5.56">
        <lane index="0">
            <param key="origId" value="1032517877"/>
        </lane>
    </edge>
    <edge id="-1032517877#4" from="11752291210" to="9513402316" priority="1" type="highway.service" numLanes="1" speed="5.56" shape="769.75,834.68 629.29,831.65 620.61,831.62">
        <lane index="0">
            <param key="origId" value="1032517877"/>
        </lane>
    </edge>
    <edge id="-1032517877#5" from="9513418825" to="11752291210" priority="1" type="highway.service" numLanes="1" speed="5.56">
        <lane index="0">
            <param key="origId" value="1032517877"/>
        </lane>
    </edge>
    <edge id="-1032517877#6" from="11752291186" to="9513418825" priority="1" type="highway.service" numLanes="1" speed="5.56" shape="832.26,835.80 783.83,835.00 781.16,834.93">
        <lane index="0">
            <param key="origId" value="1032517877"/>
        </lane>
    </edge>
    <edge id="-1032517877#7" from="11752291188" to="11752291186" priority="1" type="highway.service" numLanes="1" speed="5.56">
        <lane index="0">
            <param key="origId" value="1032517877"/>
        </lane>
    </edge>
    <edge id="-1032517877#8" from="11752291183" to="11752291188" priority="1" type="highway.service" numLanes="1" speed="5.56">
        <lane index="0">
            <param key="origId" value="1032517877"/>
        </lane>
    </edge>
    <edge id="-1032517877#9" from="11752291195" to="11752291183" priority="1" type="highway.service" numLanes="1" speed="5.56" shape="1146.59,841.66 1026.63,839.01 937.05,837.53">
        <lane index="0">
            <param key="origId" value="1032517877"/>
        </lane>
    </edge>
    <edge id="-1032517878#0" from="11752291170" to="9513402282" priority="1" type="highway.service" numLanes="1" speed="5.56">
        <lane index="0">
            <param key="origId" value="1032517878"/>
        </lane>
    </edge>
    <edge id="-1032517878#1" from="11752274368" to="11752291170" priority="1" type="highway.service" numLanes="1" speed="5.56">
        <lane index="0">
            <param key="origId" value="1032517878"/>
        </lane>
    </edge>
    <edge id="-1032517878#2" from="11752274366" to="11752274368" priority="1" type="highway.service" numLanes="1" speed="5.56">
        <lane index="0">
            <param key="origId" value="1032517878"/>
        </lane>
    </edge>
    <edge id="-1032517878#3" from="11752274352" to="11752274366" priority="1" type="highway.service" numLanes="1" speed="5.56">
        <lane index="0">
            <param key="origId" value="1032517878"/>
        </lane>
    </edge>
    <edge id="-1032517878#4" from="11752274359" to="11752274352" priority="1" type="highway.service" numLanes="1" speed="5.56">
        <lane index="0">
            <param key="origId" value="1032517878"/>
        </lane>
    </edge>
    <edge id="-1032517878#5" from="11752274361" to="11752274359" priority="1" type="highway.service" numLanes="1" speed="5.56">
        <lane index="0">
            <param key="origId" value="1032517878"/>
        </lane>
    </edge>
    <edge id="-1032517878#6" from="9513402283" to="11752274361" priority="1" type="highway.service" numLanes="1" speed="5.56">
        <lane index="0">
            <param key="origId" value="1032517878"/>
        </lane>
    </edge>
    <edge id="-1032517879" from="9513402311" to="9513402284" priority="1" type="highway.service" numLanes="1" speed="5.56" shape="581.08,494.63 581.90,443.58 583.80,431.81 592.16,418.50 653.60,374.21 699.50,341.08 737.29,314.82 760.33,291.31 860.66,174.71 954.26,49.98 964.82,39.52 979.63,25.08 1000.16,13.29 1016.12,6.45 1037.02,0.00 1135.96,0.05 1187.33,0.92 1196.40,2.22 1207.63,5.45 1216.48,9.13 1223.60,14.08 1231.37,21.43 1238.27,33.95 1244.11,48.41 1246.09,63.26 1246.09,124.82 1244.35,264.93 1239.52,503.81">
        <lane index="0">
            <param key="origId" value="1032517879"/>
        </lane>
    </edge>
    <edge id="-1032517881#0" from="9513732525" to="9513402316" priority="1" type="highway.service" numLanes="1" speed="5.56" shape="746.00,919.93 623.59,916.68 620.11,915.94 618.61,913.20 618.61,902.01 619.62,870.69 620.61,831.62">
        <lane index="0">
            <param key="origId" value="1032517881"/>
        </lane>
    </edge>
    <edge id="-1032517881#1" from="9513418825" to="9513732525" priority="1" type="highway.service" numLanes="1" speed="5.56" shape="781.16,834.93 778.51,913.99 776.85,918.28 771.24,920.59 746.00,919.93">
        <lane index="0">
            <param key="origId" value="1032517881"/>
        </lane>
    </edge>
    <edge id="-1032517882#0" from="9513069047" to="10939627761" priority="1" type="highway.service" numLanes="1" speed="5.56" shape="556.94,943.13 458.05,939.53 459.81,841.47 459.73,831.06">
        <lane index="0">
            <param key="origId" value="1032517882"/>
        </lane>
    </edge>
    <edge id="-1032517882#1" from="9513418829" to="9513069047" priority="1" type="highway.service" numLanes="1" speed="5.56" shape="596.38,831.54 592.44,943.48 556.94,943.13">
        <lane index="0">
            <param key="origId" value="1032517882"/>
        </lane>
    </edge>
    <edge id="-1032519370" from="9513432147" to="9513432146" priority="1" type="highway.service" numLanes="1" speed="5.56">
        <lane index="0">
            <param key="origId" value="1032519370"/>
        </lane>
    </edge>
    <edge id="-1032519371" from="9513432149" to="9513432148" priority="1" type="highway.service" numLanes="1" speed="5.56">
        <lane index="0">
            <param key="origId" value="1032519371"/>
        </lane>
    </edge>
    <edge id="-1032519372" from="9513432151" to="9513432150" priority="1" type="highway.service" numLanes="1" speed="5.56">
        <lane index="0">
            <param key="origId" value="1032519372"/>
        </lane>
    </edge>
    <edge id="-1032519373" from="9513432153" to="9513432150" priority="1" type="highway.service" numLanes="1" speed="5.56" shape="1398.05,1148.36 1259.38,1147.71 1260.17,1112.32">
        <lane index="0">
            <param key="origId" value="1032519373 1032519374"/>
        </lane>
    </edge>
    <edge id="-1032519374#0" from="9513432150" to="9513432153" priority="1" type="highway.service" numLanes="1" speed="5.56" shape="1260.17,1112.32 1259.38,1147.71 1398.05,1148.36">
        <lane index="0">
            <param key="origId" value="1032519374 1032519373"/>
        </lane>
    </edge>
    <edge id="-1032519374#1" from="9513432148" to="9513432150" priority="1" type="highway.service" numLanes="1" speed="5.56">
        <lane index="0">
            <param key="origId" value="1032519374"/>
        </lane>
    </edge>
    <edge id="-1032519374#2" from="9513432160" to="9513432148" priority="1" type="highway.service" numLanes="1" speed="5.56">
        <lane index="0">
            <param key="origId" value="1032519374"/>
        </lane>
    </edge>
    <edge id="-1032519374#3" from="9513432158" to="9513432160" priority="1" type="highway.service" numLanes="1" speed="5.56">
        <lane index="0">
            <param key="origId" value="1032519374"/>
        </lane>
    </edge>
    <edge id="-1032519376" from="9513432159" to="9513432158" priority="1" type="highway.service" numLanes="1" speed="5.56">
        <lane index="0">
            <param key="origId" value="1032519376"/>
        </lane>
    </edge>
    <edge id="-1032519377" from="9513432162" to="9513432160" priority="1" type="highway.service" numLanes="1" speed="5.56" shape="1412.37,1035.95 1369.81,1034.89 1261.44,1032.62">
        <lane index="0">
            <param key="origId" value="1032519377"/>
        </lane>
    </edge>
    <edge id="-1032552693#0" from="9513732531" to="9513732525" priority="1" type="highway.service" numLanes="1" speed="5.56">
        <lane index="0">
            <param key="origId" value="1032552693"/>
        </lane>
    </edge>
    <edge id="-1032552693#1" from="9513069049" to="9513732531" priority="1" type="highway.service" numLanes="1" speed="5.56" shape="720.60,1022.79 712.20,1010.78 710.77,1006.20 724.52,978.98 744.28,954.34 744.38,952.47">
        <lane index="0">
            <param key="origId" value="1032552693"/>
        </lane>
    </edge>
    <edge id="-1032552694" from="9513732530" to="9513069049" priority="1" type="highway.service" numLanes="1" speed="5.56">
        <lane index="0">
            <param key="origId" value="1032552694"/>
        </lane>
    </edge>
    <edge id="-1032552695" from="9513732537" to="9513732531" priority="1" type="highway.service" numLanes="1" speed="5.56" shape="747.50,1061.63 749.49,1048.25 750.98,1044.27 785.05,1020.40 814.39,983.36 777.83,953.51 744.38,952.47">
        <lane index="0">
            <param key="origId" value="1032552695"/>
        </lane>
    </edge>
    <edge id="-1032552701#0" from="9513732574" to="9513732570" priority="1" type="highway.service" numLanes="1" speed="5.56" shape="867.99,1462.42 859.41,1468.69 844.24,1477.28 834.67,1484.20 826.42,1492.45">
        <lane index="0">
            <param key="origId" value="1032552701"/>
        </lane>
    </edge>
    <edge id="-1032552701#1" from="9513732606" to="9513732574" priority="1" type="highway.service" numLanes="1" speed="5.56" shape="872.42,1434.19 871.95,1453.84 867.99,1462.42">
        <lane index="0">
            <param key="origId" value="1032552701"/>
        </lane>
    </edge>
    <edge id="-1032552701#2" from="9513732576" to="9513732606" priority="1" type="highway.service" numLanes="1" speed="5.56">
        <lane index="0">
            <param key="origId" value="1032552701"/>
        </lane>
    </edge>
    <edge id="-1032552702#0" from="9513732585" to="9513732579" priority="1" type="highway.service" numLanes="1" speed="5.56" shape="920.83,1463.09 926.72,1467.71 944.53,1477.60 959.71,1490.47">
        <lane index="0">
            <param key="origId" value="1032552702"/>
        </lane>
    </edge>
    <edge id="-1032552702#1" from="9513732607" to="9513732585" priority="1" type="highway.service" numLanes="1" speed="5.56" shape="915.75,1445.14 915.50,1455.49 917.48,1460.45 920.83,1463.09">
        <lane index="0">
            <param key="origId" value="1032552702"/>
        </lane>
    </edge>
    <edge id="-1032552702#2" from="9513732584" to="9513732607" priority="1" type="highway.service" numLanes="1" speed="5.56">
        <lane index="0">
            <param key="origId" value="1032552702"/>
        </lane>
    </edge>
    <edge id="-1032552703" from="9513732585" to="9513732574" priority="1" type="highway.service" numLanes="1" speed="5.56">
        <lane index="0">