<?xml version="1.0" encoding="UTF-8"?>

<!-- generated on 2024-11-28 15:20:15 by Eclipse SUMO netedit Version 1.21.0
<neteditConfiguration xmlns:xsi="http://www.w3.org/2001/XMLSchema-instance" xsi:noNamespaceSchemaLocation="http://sumo.dlr.de/xsd/neteditConfiguration.xsd">

    <input>
        <additional-files value="C:\Users\hp\sumo shivam\tinker final\tinker-final.add.xml"/>
        <route-files value="C:\Users\hp\sumo shivam\tinker final\tinker-final.rou.xml"/>
        <data-files value="C:\Users\hp\sumo shivam\tinker final\tinker-final.dat.xml"/>
        <sumo-net-file value="C:\Users\hp\sumo shivam\tinker final\tinker.net.xml"/>
    </input>

    <processing>
        <geometry.min-radius.fix.railways value="false"/>
        <geometry.max-grade.fix value="false"/>
        <offset.disable-normalization value="true"/>
        <lefthand value="1"/>
    </processing>

    <junctions>
        <no-internal-links value="false"/>
        <no-turnarounds value="true"/>
        <junctions.corner-detail value="5"/>
        <junctions.limit-turn-speed value="5.50"/>
        <rectangular-lane-cut value="0"/>
    </junctions>

    <pedestrian>
        <walkingareas value="1"/>
    </pedestrian>

</neteditConfiguration>
-->

<connections version="1.20" xmlns:xsi="http://www.w3.org/2001/XMLSchema-instance" xsi:noNamespaceSchemaLocation="http://sumo.dlr.de/xsd/connections_file.xsd">
    <connection from="-1032481446#0" to="1032481447#1" fromLane="0" toLane="0"/>
    <connection from="-1032481446#0" to="-1032552701#2" fromLane="0" toLane="0"/>
    <connection from="-1032481446#0" to="-1032481447#0" fromLane="0" toLane="0"/>

    <connection from="-1032481446#1" to="-1032481446#0" fromLane="0" toLane="0"/>
    <connection from="-1032481446#1" to="-1032552702#2" fromLane="0" toLane="0"/>
    <connection from="-1032481446#1" to="1032481446#1" fromLane="0" toLane="0"/>

    <connection from="-1032481447#0" to="-1032552702#2" fromLane="0" toLane="0"/>
    <connection from="-1032481447#0" to="1032481446#1" fromLane="0" toLane="0"/>
    <connection from="-1032481447#0" to="-1032481446#0" fromLane="0" toLane="0"/>

    <connection from="-1032481447#1" to="-1032552701#2" fromLane="0" toLane="0"/>
    <connection from="-1032481447#1" to="-1032481447#0" fromLane="0" toLane="0"/>
    <connection from="-1032481447#1" to="1032481447#1" fromLane="0" toLane="0"/>

    <connection from="-1032481448" to="1032481449#0" fromLane="0" toLane="0"/>
    <connection from="-1032481448" to="-1032481450#9" fromLane="0" toLane="0"/>
    <connection from="-1032481448" to="-1032481447#1" fromLane="0" toLane="0"/>
    <connection from="-1032481448" to="1032481448" fromLane="0" toLane="0"/>

    <connection from="-1032481449#0" to="-1032481450#9" fromLane="0" toLane="0"/>
    <connection from="-1032481449#0" to="-1032481447#1" fromLane="0" toLane="0"/>
    <connection from="-1032481449#0" to="1032481448" fromLane="0" toLane="0"/>
    <connection from="-1032481449#0" to="1032481449#0" fromLane="0" toLane="0"/>

    <connection from="-1032481449#1" to="1032517874#0" fromLane="0" toLane="0"/>
    <connection from="-1032481449#1" to="-1032481449#0" fromLane="0" toLane="0"/>
    <connection from="-1032481449#1" to="1032481449#1" fromLane="0" toLane="0"/>

    <connection from="-1032481449#2" to="1032618612#0" fromLane="0" toLane="0"/>
    <connection from="-1032481449#2" to="-1032481449#1" fromLane="0" toLane="0"/>
    <connection from="-1032481449#2" to="1032481449#2" fromLane="0" toLane="0"/>

    <connection from="-1032481450#1" to="1190346885#0" fromLane="0" toLane="0" keepClear="0"/>
    <connection from="-1032481450#1" to="1032481450#1" fromLane="0" toLane="0"/>

    <connection from="-1032481450#2" to="1190346887" fromLane="0" toLane="0"/>
    <connection from="-1032481450#2" to="-1032481450#1" fromLane="0" toLane="0"/>
    <connection from="-1032481450#2" to="1032481450#2" fromLane="0" toLane="0"/>

    <connection from="-1032481450#3" to="-1190346886#4" fromLane="0" toLane="0"/>
    <connection from="-1032481450#3" to="-1032481450#2" fromLane="0" toLane="0"/>
    <connection from="-1032481450#3" to="1032481450#3" fromLane="0" toLane="0"/>

    <connection from="-1032481450#4" to="1032886633#0" fromLane="0" toLane="0"/>
    <connection from="-1032481450#4" to="-1032481450#3" fromLane="0" toLane="0"/>
    <connection from="-1032481450#4" to="1032481450#4" fromLane="0" toLane="0"/>

    <connection from="-1032481450#5" to="-1191964192#1" fromLane="0" toLane="0"/>
    <connection from="-1032481450#5" to="-1032481450#4" fromLane="0" toLane="0"/>
    <connection from="-1032481450#5" to="1032481450#5" fromLane="0" toLane="0"/>

    <connection from="-1032481450#6" to="1191964193" fromLane="0" toLane="0"/>
    <connection from="-1032481450#6" to="-1032481450#5" fromLane="0" toLane="0"/>
    <connection from="-1032481450#6" to="1032481450#6" fromLane="0" toLane="0"/>

    <connection from="-1032481450#7" to="-1032481450#6" fromLane="0" toLane="0"/>
    <connection from="-1032481450#7" to="1265064907#0" fromLane="0" toLane="0"/>
    <connection from="-1032481450#7" to="1032481450#7" fromLane="0" toLane="0"/>

    <connection from="-1032481450#8" to="1032481451" fromLane="0" toLane="0"/>
    <connection from="-1032481450#8" to="-1032481450#7" fromLane="0" toLane="0"/>
    <connection from="-1032481450#8" to="1032481450#8" fromLane="0" toLane="0"/>

    <connection from="-1032481450#9" to="-1032481450#8" fromLane="0" toLane="0"/>
    <connection from="-1032481450#9" to="1032517876" fromLane="0" toLane="0"/>
    <connection from="-1032481450#9" to="1032481450#9" fromLane="0" toLane="0"/>

    <connection from="-1032481452#1" to="1032481453" fromLane="0" toLane="0"/>
    <connection from="-1032481452#1" to="1032481452#1" fromLane="0" toLane="0"/>

    <connection from="-1032481453" to="1032481452#1" fromLane="0" toLane="0"/>
    <connection from="-1032481453" to="1032481453" fromLane="0" toLane="0"/>

    <connection from="-1032481454#0" to="-1032481449#2" fromLane="0" toLane="0"/>
    <connection from="-1032481454#0" to="-1032481448" fromLane="0" toLane="0"/>
    <connection from="-1032481454#0" to="-1032481446#1" fromLane="0" toLane="0"/>
    <connection from="-1032481454#0" to="1032481454#0" fromLane="0" toLane="0"/>

    <connection from="-1032481454#1" to="-1032481454#0" fromLane="0" toLane="0"/>
    <connection from="-1032481454#1" to="1032481455#0" fromLane="0" toLane="0"/>
    <connection from="-1032481454#1" to="1032481454#1" fromLane="0" toLane="0"/>

    <connection from="-1032481454#2" to="-1032519373" fromLane="0" toLane="0"/>
    <connection from="-1032481454#2" to="-1032481454#1" fromLane="0" toLane="0"/>
    <connection from="-1032481454#2" to="1032481454#2" fromLane="0" toLane="0"/>

    <connection from="-1032481454#3" to="-1032519372" fromLane="0" toLane="0"/>
    <connection from="-1032481454#3" to="-1032481454#2" fromLane="0" toLane="0"/>
    <connection from="-1032481454#3" to="1032481454#3" fromLane="0" toLane="0"/>

    <connection from="-1032481454#4" to="-1032519371" fromLane="0" toLane="0"/>
    <connection from="-1032481454#4" to="-1032481454#3" fromLane="0" toLane="0"/>
    <connection from="-1032481454#4" to="1032481454#4" fromLane="0" toLane="0"/>

    <connection from="-1032481454#5" to="-1032481454#4" fromLane="0" toLane="0"/>
    <connection from="-1032481454#5" to="1265064905#0" fromLane="0" toLane="0"/>
    <connection from="-1032481454#5" to="1032481454#5" fromLane="0" toLane="0"/>

    <connection from="-1032481454#6" to="-1032519377" fromLane="0" toLane="0"/>
    <connection from="-1032481454#6" to="-1032481454#5" fromLane="0" toLane="0"/>
    <connection from="-1032481454#6" to="1032481454#6" fromLane="0" toLane="0"/>

    <connection from="-1032481454#7" to="-1032519376" fromLane="0" toLane="0"/>
    <connection from="-1032481454#7" to="-1032481454#6" fromLane="0" toLane="0"/>
    <connection from="-1032481454#7" to="1032481454#7" fromLane="0" toLane="0"/>

    <connection from="-1032481455#0" to="1032481454#1" fromLane="0" toLane="0"/>
    <connection from="-1032481455#0" to="-1032481454#0" fromLane="0" toLane="0"/>
    <connection from="-1032481455#0" to="1032481455#0" fromLane="0" toLane="0"/>

    <connection from="-1032481455#1" to="-1032481459#1" fromLane="0" toLane="0"/>
    <connection from="-1032481455#1" to="-1032481455#0" fromLane="0" toLane="0"/>
    <connection from="-1032481455#1" to="1032481455#1" fromLane="0" toLane="0"/>

    <connection from="-1032481455#2" to="1032481456" fromLane="0" toLane="0"/>
    <connection from="-1032481455#2" to="-1032481455#1" fromLane="0" toLane="0"/>
    <connection from="-1032481455#2" to="1032481455#2" fromLane="0" toLane="0"/>

    <connection from="-1032481455#3" to="1032481457" fromLane="0" toLane="0"/>
    <connection from="-1032481455#3" to="-1032481455#2" fromLane="0" toLane="0"/>
    <connection from="-1032481455#3" to="1032481455#3" fromLane="0" toLane="0"/>

    <connection from="-1032481455#4" to="1032481458" fromLane="0" toLane="0"/>
    <connection from="-1032481455#4" to="-1032481455#3" fromLane="0" toLane="0"/>
    <connection from="-1032481455#4" to="1032481455#4" fromLane="0" toLane="0"/>

    <connection from="-1032481455#5" to="-1032481458" fromLane="0" toLane="0"/>
    <connection from="-1032481455#5" to="-1032481455#4" fromLane="0" toLane="0"/>
    <connection from="-1032481455#5" to="1032481455#5" fromLane="0" toLane="0"/>

    <connection from="-1032481455#6" to="-1032481457" fromLane="0" toLane="0"/>
    <connection from="-1032481455#6" to="-1032481455#5" fromLane="0" toLane="0"/>
    <connection from="-1032481455#6" to="1032481455#6" fromLane="0" toLane="0"/>

    <connection from="-1032481455#7" to="-1032481456" fromLane="0" toLane="0"/>
    <connection from="-1032481455#7" to="-1032481455#6" fromLane="0" toLane="0"/>
    <connection from="-1032481455#7" to="1032481459#0" fromLane="0" toLane="0"/>
    <connection from="-1032481455#7" to="1032481455#7" fromLane="0" toLane="0"/>

    <connection from="-1032481456" to="-1032481455#1" fromLane="0" toLane="0"/>
    <connection from="-1032481456" to="1032481455#2" fromLane="0" toLane="0"/>
    <connection from="-1032481456" to="1032481456" fromLane="0" toLane="0"/>

    <connection from="-1032481457" to="-1032481455#2" fromLane="0" toLane="0"/>
    <connection from="-1032481457" to="1032481455#3" fromLane="0" toLane="0"/>
    <connection from="-1032481457" to="1032481457" fromLane="0" toLane="0"/>

    <connection from="-1032481458" to="-1032481455#3" fromLane="0" toLane="0"/>
    <connection from="-1032481458" to="1032481455#4" fromLane="0" toLane="0"/>
    <connection from="-1032481458" to="1032481458" fromLane="0" toLane="0"/>

    <connection from="-1032481459#0" to="1032481455#7" fromLane="0" toLane="0"/>
    <connection from="-1032481459#0" to="-1032481456" fromLane="0" toLane="0"/>
    <connection from="-1032481459#0" to="-1032481455#6" fromLane="0" toLane="0"/>
    <connection from="-1032481459#0" to="1032481459#0" fromLane="0" toLane="0"/>

    <connection from="-1032481459#1" to="-1032481455#7" fromLane="0" toLane="0"/>
    <connection from="-1032481459#1" to="-1032481459#0" fromLane="0" toLane="0"/>
    <connection from="-1032481459#1" to="1032481459#1" fromLane="0" toLane="0"/>

    <connection from="-1032517872#0" to="1032517872#0" fromLane="0" toLane="0"/>

    <connection from="-1032517872#1" to="-1032517872#0" fromLane="0" toLane="0"/>
    <connection from="-1032517872#1" to="-1032517872#5" fromLane="0" toLane="0"/>
    <connection from="-1032517872#1" to="1032517872#1" fromLane="0" toLane="0"/>

    <connection from="-1032517872#2" to="-1032552694" fromLane="0" toLane="0"/>
    <connection from="-1032517872#2" to="-1032517872#1" fromLane="0" toLane="0"/>
    <connection from="-1032517872#2" to="1032517872#2" fromLane="0" toLane="0"/>

    <connection from="-1032517872#3" to="-1032552695" fromLane="0" toLane="0"/>
    <connection from="-1032517872#3" to="-1032517872#2" fromLane="0" toLane="0"/>
    <connection from="-1032517872#3" to="1032517872#3" fromLane="0" toLane="0"/>

    <connection from="-1032517872#4" to="1032517873#0" fromLane="0" toLane="0"/>
    <connection from="-1032517872#4" to="-1032517872#3" fromLane="0" toLane="0"/>
    <connection from="-1032517872#4" to="1032517872#4" fromLane="0" toLane="0"/>

    <connection from="-1032517872#5" to="1032618613#0" fromLane="0" toLane="0"/>
    <connection from="-1032517872#5" to="-1032517872#4" fromLane="0" toLane="0"/>
    <connection from="-1032517872#5" to="1032517872#5" fromLane="0" toLane="0"/>

    <connection from="-1032517873#0" to="-1032517872#3" fromLane="0" toLane="0"/>
    <connection from="-1032517873#0" to="1032517872#4" fromLane="0" toLane="0"/>
    <connection from="-1032517873#0" to="1032517873#0" fromLane="0" toLane="0"/>

    <connection from="-1032517873#1" to="-1032517873#0" fromLane="0" toLane="0"/>
    <connection from="-1032517873#1" to="-1032618612#1" fromLane="0" toLane="0"/>
    <connection from="-1032517873#1" to="1032517873#1" fromLane="0" toLane="0"/>

    <connection from="-1032517873#2" to="-1032517873#1" fromLane="0" toLane="0"/>
    <connection from="-1032517873#2" to="-1032618613#1" fromLane="0" toLane="0"/>
    <connection from="-1032517873#2" to="1032517873#2" fromLane="0" toLane="0"/>

    <connection from="-1032517873#3" to="-1032517873#2" fromLane="0" toLane="0"/>
    <connection from="-1032517873#3" to="1032517873#3" fromLane="0" toLane="0"/>

    <connection from="-1032517873#4" to="-1032517873#5" fromLane="0" toLane="0"/>
    <connection from="-1032517873#4" to="-1032517873#3" fromLane="0" toLane="0"/>
    <connection from="-1032517873#4" to="1032517873#4" fromLane="0" toLane="0"/>

    <connection from="-1032517873#5" to="-1032517873#4" fromLane="0" toLane="0"/>
    <connection from="-1032517873#5" to="E0" fromLane="0" toLane="0"/>

    <connection from="-1032517874#0" to="-1032481449#0" fromLane="0" toLane="0"/>
    <connection from="-1032517874#0" to="1032481449#1" fromLane="0" toLane="0"/>
    <connection from="-1032517874#0" to="1032517874#0" fromLane="0" toLane="0"/>

    <connection from="-1032517874#1" to="-1032517874#0" fromLane="0" toLane="0"/>
    <connection from="-1032517874#1" to="1032517874#1" fromLane="0" toLane="0"/>

    <connection from="-1032517874#2" to="-1032517874#1" fromLane="0" toLane="0"/>
    <connection from="-1032517874#2" to="1032517874#2" fromLane="0" toLane="0"/>

    <connection from="-1032517877#0" to="1265064886#0" fromLane="0" toLane="0"/>
    <connection from="-1032517877#0" to="-1265064884#1" fromLane="0" toLane="0"/>
    <connection from="-1032517877#0" to="-1032886633#2" fromLane="0" toLane="0"/>
    <connection from="-1032517877#0" to="1032517877#0" fromLane="0" toLane="0"/>

    <connection from="-1032517877#1" to="-1032517877#0" fromLane="0" toLane="0"/>
    <connection from="-1032517877#1" to="1032517882#0" fromLane="0" toLane="0"/>
    <connection from="-1032517877#1" to="1032517877#1" fromLane="0" toLane="0"/>

    <connection from="-1032517877#10" to="-1032517877#9" fromLane="0" toLane="0"/>
    <connection from="-1032517877#10" to="-1265064904" fromLane="0" toLane="0"/>
    <connection from="-1032517877#10" to="1032517877#10" fromLane="0" toLane="0"/>

    <connection from="-1032517877#11" to="1032517878#0" fromLane="0" toLane="0"/>
    <connection from="-1032517877#11" to="-1032517877#10" fromLane="0" toLane="0"/>
    <connection from="-1032517877#11" to="1032517877#11" fromLane="0" toLane="0"/>

    <connection from="-1032517877#12" to="-1265064896#2" fromLane="0" toLane="0"/>
    <connection from="-1032517877#12" to="-1032517877#11" fromLane="0" toLane="0"/>
    <connection from="-1032517877#12" to="1032517877#12" fromLane="0" toLane="0"/>

    <connection from="-1032517877#13" to="-1032517877#12" fromLane="0" toLane="0"/>
    <connection from="-1032517877#13" to="-1032519370" fromLane="0" toLane="0"/>
    <connection from="-1032517877#13" to="1032517877#13" fromLane="0" toLane="0"/>

    <connection from="-1032517877#14" to="1265064897#0" fromLane="0" toLane="0"/>
    <connection from="-1032517877#14" to="-1032517877#13" fromLane="0" toLane="0"/>
    <connection from="-1032517877#14" to="1032517877#14" fromLane="0" toLane="0"/>

    <connection from="-1032517877#15" to="-1032517877#14" fromLane="0" toLane="0"/>
    <connection from="-1032517877#15" to="-1177559083" fromLane="0" toLane="0"/>
    <connection from="-1032517877#15" to="1032517877#15" fromLane="0" toLane="0"/>

    <connection from="-1032517877#2" to="-1032517877#1" fromLane="0" toLane="0"/>
    <connection from="-1032517877#2" to="-1032517882#1" fromLane="0" toLane="0"/>
    <connection from="-1032517877#2" to="1032517877#2" fromLane="0" toLane="0"/>

    <connection from="-1032517877#3" to="1265064909#0" fromLane="0" toLane="0"/>
    <connection from="-1032517877#3" to="-1032517877#2" fromLane="0" toLane="0"/>
    <connection from="-1032517877#3" to="1032517877#3" fromLane="0" toLane="0"/>

    <connection from="-1032517877#4" to="-1032517877#3" fromLane="0" toLane="0"/>
    <connection from="-1032517877#4" to="1032517881#0" fromLane="0" toLane="0"/>
    <connection from="-1032517877#4" to="1032517877#4" fromLane="0" toLane="0"/>

    <connection from="-1032517877#5" to="-1265064909#2" fromLane="0" toLane="0"/>
    <connection from="-1032517877#5" to="-1032517877#4" fromLane="0" toLane="0"/>
    <connection from="-1032517877#5" to="1032517877#5" fromLane="0" toLane="0"/>

    <connection from="-1032517877#6" to="-1032517877#5" fromLane="0" toLane="0"/>
    <connection from="-1032517877#6" to="-1032517881#1" fromLane="0" toLane="0"/>
    <connection from="-1032517877#6" to="1032517877#6" fromLane="0" toLane="0"/>

    <connection from="-1032517877#7" to="-1032517877#6" fromLane="0" toLane="0"/>
    <connection from="-1032517877#7" to="1265064901#0" fromLane="0" toLane="0"/>
    <connection from="-1032517877#7" to="1032517877#7" fromLane="0" toLane="0"/>

    <connection from="-1032517877#8" to="-1032517877#7" fromLane="0" toLane="0"/>
    <connection from="-1032517877#8" to="-1265064901#1" fromLane="0" toLane="0"/>
    <connection from="-1032517877#8" to="1032517877#8" fromLane="0" toLane="0"/>

    <connection from="-1032517877#9" to="-1032517877#8" fromLane="0" toLane="0"/>
    <connection from="-1032517877#9" to="1265064900#0" fromLane="0" toLane="0"/>
    <connection from="-1032517877#9" to="1032517877#9" fromLane="0" toLane="0"/>

    <connection from="-1032517878#0" to="-1032517877#10" fromLane="0" toLane="0"/>
    <connection from="-1032517878#0" to="1032517877#11" fromLane="0" toLane="0"/>
    <connection from="-1032517878#0" to="1032517878#0" fromLane="0" toLane="0"/>

    <connection from="-1032517878#1" to="-1032517878#0" fromLane="0" toLane="0"/>
    <connection from="-1032517878#1" to="1265064895#0" fromLane="0" toLane="0"/>
    <connection from="-1032517878#1" to="1032517878#1" fromLane="0" toLane="0"/>

    <connection from="-1032517878#2" to="-1032517878#1" fromLane="0" toLane="0"/>
    <connection from="-1032517878#2" to="1265064894#0" fromLane="0" toLane="0"/>
    <connection from="-1032517878#2" to="1032517878#2" fromLane="0" toLane="0"/>

    <connection from="-1032517878#3" to="-1032517878#2" fromLane="0" toLane="0"/>
    <connection from="-1032517878#3" to="1265064893#0" fromLane="0" toLane="0"/>
    <connection from="-1032517878#3" to="1032517878#3" fromLane="0" toLane="0"/>

    <connection from="-1032517878#4" to="-1032517878#3" fromLane="0" toLane="0"/>
    <connection from="-1032517878#4" to="1265064887#0" fromLane="0" toLane="0"/>
    <connection from="-1032517878#4" to="1032517878#4" fromLane="0" toLane="0"/>

    <connection from="-1032517878#5" to="-1032517878#4" fromLane="0" toLane="0"/>
    <connection from="-1032517878#5" to="1265064890" fromLane="0" toLane="0"/>
    <connection from="-1032517878#5" to="1032517878#5" fromLane="0" toLane="0"/>

    <connection from="-1032517878#6" to="-1032517878#5" fromLane="0" toLane="0"/>
    <connection from="-1032517878#6" to="1265064891" fromLane="0" toLane="0"/>
    <connection from="-1032517878#6" to="1032517878#6" fromLane="0" toLane="0"/>

    <connection from="-1032517879" to="-1265064886#2" fromLane="0" toLane="0"/>
    <connection from="-1032517879" to="-1032618607#4" fromLane="0" toLane="0"/>
    <connection from="-1032517879" to="1032517879" fromLane="0" toLane="0"/>

    <connection from="-1032517881#0" to="1032517877#4" fromLane="0" toLane="0"/>
    <connection from="-1032517881#0" to="-1032517877#3" fromLane="0" toLane="0"/>
    <connection from="-1032517881#0" to="1032517881#0" fromLane="0" toLane="0"/>

    <connection from="-1032517881#1" to="-1032517881#0" fromLane="0" toLane="0"/>
    <connection from="-1032517881#1" to="1032552693#0" fromLane="0" toLane="0"/>
    <connection from="-1032517881#1" to="1032517881#1" fromLane="0" toLane="0"/>

    <connection from="-1032517882#0" to="1032517877#1" fromLane="0" toLane="0"/>
    <connection from="-1032517882#0" to="-1032517877#0" fromLane="0" toLane="0"/>
    <connection from="-1032517882#0" to="1032517882#0" fromLane="0" toLane="0"/>

    <connection from="-1032517882#1" to="-1032517882#0" fromLane="0" toLane="0"/>
    <connection from="-1032517882#1" to="-1032481452#1" fromLane="0" toLane="0"/>
    <connection from="-1032517882#1" to="1032517882#1" fromLane="0" toLane="0"/>

    <connection from="-1032519370" to="1032481454#8" fromLane="0" toLane="0"/>
    <connection from="-1032519370" to="-1032481454#7" fromLane="0" toLane="0"/>
    <connection from="-1032519370" to="1032519370" fromLane="0" toLane="0"/>

    <connection from="-1032519371" to="1032519374#2" fromLane="0" toLane="0"/>
    <connection from="-1032519371" to="-1032519374#1" fromLane="0" toLane="0"/>
    <connection from="-1032519371" to="1032519371" fromLane="0" toLane="0"/>

    <connection from="-1032519372" to="1032519374#1" fromLane="0" toLane="0"/>
    <connection from="-1032519372" to="-1032519374#0" fromLane="0" toLane="0"/>
    <connection from="-1032519372" to="1032519372" fromLane="0" toLane="0"/>

    <connection from="-1032519373" to="1032519372" fromLane="0" toLane="0"/>
    <connection from="-1032519373" to="1032519374#1" fromLane="0" toLane="0"/>
    <connection from="-1032519373" to="-1032519374#0" fromLane="0" toLane="0"/>

    <connection from="-1032519374#0" to="-1032481454#1" fromLane="0" toLane="0"/>
    <connection from="-1032519374#0" to="1032481454#2" fromLane="0" toLane="0"/>
    <connection from="-1032519374#0" to="-1032519373" fromLane="0" toLane="0"/>

    <connection from="-1032519374#1" to="-1032519374#0" fromLane="0" toLane="0"/>
    <connection from="-1032519374#1" to="1032519372" fromLane="0" toLane="0"/>
    <connection from="-1032519374#1" to="1032519374#1" fromLane="0" toLane="0"/>

    <connection from="-1032519374#2" to="-1032519374#1" fromLane="0" toLane="0"/>
    <connection from="-1032519374#2" to="1032519371" fromLane="0" toLane="0"/>
    <connection from="-1032519374#2" to="1032519374#2" fromLane="0" toLane="0"/>

    <connection from="-1032519374#3" to="-1032519374#2" fromLane="0" toLane="0"/>
    <connection from="-1032519374#3" to="1032519377" fromLane="0" toLane="0"/>
    <connection from="-1032519374#3" to="1032519374#3" fromLane="0" toLane="0"/>

    <connection from="-1032519376" to="1032519374#4" fromLane="0" toLane="0"/>
    <connection from="-1032519376" to="-1032519374#3" fromLane="0" toLane="0"/>
    <connection from="-1032519376" to="1032519376" fromLane="0" toLane="0"/>

    <connection from="-1032519377" to="1032519374#3" fromLane="0" toLane="0"/>
    <connection from="-1032519377" to="-1032519374#2" fromLane="0" toLane="0"/>
    <connection from="-1032519377" to="1032519377" fromLane="0" toLane="0"/>

    <connection from="-1032552693#0" to="1032517881#1" fromLane="0" toLane="0"/>
    <connection from="-1032552693#0" to="-1032517881#0" fromLane="0" toLane="0"/>
    <connection from="-1032552693#0" to="1032552693#0" fromLane="0" toLane="0"/>

    <connection from="-1032552693#1" to="1032552695" fromLane="0" toLane="0"/>
    <connection from="-1032552693#1" to="-1032552693#0" fromLane="0" toLane="0"/>
    <connection from="-1032552693#1" to="1032552693#1" fromLane="0" toLane="0"/>

    <connection from="-1032552694" to="-1032552693#1" fromLane="0" toLane="0"/>
    <connection from="-1032552694" to="-1032481453" fromLane="0" toLane="0"/>
    <connection from="-1032552694" to="1032552694" fromLane="0" toLane="0"/>

    <connection from="-1032552695" to="-1032552693#0" fromLane="0" toLane="0"/>
    <connection from="-1032552695" to="1032552693#1" fromLane="0" toLane="0"/>
    <connection from="-1032552695" to="1032552695" fromLane="0" toLane="0"/>

    <connection from="-1032552701#0" to="1032552701#0" fromLane="0" toLane="0"/>

    <connection from="-1032552701#1" to="-1032552701#0" fromLane="0" toLane="0"/>
    <connection from="-1032552701#1" to="1032552703" fromLane="0" toLane="0"/>
    <connection from="-1032552701#1" to="1032552701#1" fromLane="0" toLane="0"/>

    <connection from="-1032552701#2" to="-1032552701#1" fromLane="0" toLane="0"/>
    <connection from="-1032552701#2" to="1032552701#2" fromLane="0" toLane="0"/>

    <connection from="-1032552702#0" to="1032552702#0" fromLane="0" toLane="0"/>

    <connection from="-1032552702#1" to="-1032552703" fromLane="0" toLane="0"/>
    <connection from="-1032552702#1" to="-1032552702#0" fromLane="0" toLane="0"/>
    <connection from="-1032552702#1" to="1032552702#1" fromLane="0" toLane="0"/>

    <connection from="-1032552702#2" to="-1032552702#1" fromLane="0" toLane="0"/>
    <connection from="-1032552702#2" to="1032552702#2" fromLane="0" toLane="0"/>

    <connection from="-1032552703" to="1032552701#1" fromLane="0" toLane="0"/>
    <connection from="-1032552703" to="-1032552701#0" fromLane="0" toLane="0"/>
    <connection from="-1032552703" to="1032552703" fromLane="0" toLane="0"/>

    <connection from="-1032552707#0" to="-1032552707#1" fromLane="0" toLane="0"/>

    <connection from="-1032552707#1" to="-1032552707#0" fromLane="0" toLane="0"/>

    <connection from="-1032618607#0" to="-1265064898#2" fromLane="0" toLane="0"/>
    <connection from="-1032618607#0" to="-1032517877#15" fromLane="0" toLane="0"/>
    <connection from="-1032618607#0" to="1032517877#16" fromLane="0" toLane="0"/>

    <connection from="-1032618607#1" to="-1032618607#0" fromLane="0" toLane="0"/>
    <connection from="-1032618607#1" to="1265064892" fromLane="0" toLane="0"/>
    <connection from="-1032618607#1" to="1032618607#1" fromLane="0" toLane="0"/>

    <connection from="-1032618607#2" to="-1265064887#2" fromLane="0" toLane="0"/>
    <connection from="-1032618607#2" to="-1032618607#1" fromLane="0" toLane="0"/>
    <connection from="-1032618607#2" to="1032618607#2" fromLane="0" toLane="0"/>

    <connection from="-1032618607#3" to="1265064889" fromLane="0" toLane="0"/>
    <connection from="-1032618607#3" to="-1032618607#2" fromLane="0" toLane="0"/>
    <connection from="-1032618607#3" to="1032618607#3" fromLane="0" toLane="0"/>

    <connection from="-1032618607#4" to="1265064888#0" fromLane="0" toLane="0"/>
    <connection from="-1032618607#4" to="-1032618607#3" fromLane="0" toLane="0"/>
    <connection from="-1032618607#4" to="1032618607#4" fromLane="0" toLane="0"/>

    <connection from="-1032618612#0" to="-1032481449#1" fromLane="0" toLane="0"/>
    <connection from="-1032618612#0" to="1032481449#2" fromLane="0" toLane="0"/>
    <connection from="-1032618612#0" to="1032618612#0" fromLane="0" toLane="0"/>

    <connection from="-1032618612#1" to="-1032618613#0" fromLane="0" toLane="0"/>
    <connection from="-1032618612#1" to="-1032618612#0" fromLane="0" toLane="0"/>
    <connection from="-1032618612#1" to="1032618613#1" fromLane="0" toLane="0"/>
    <connection from="-1032618612#1" to="1032618612#1" fromLane="0" toLane="0"/>

    <connection from="-1032618613#0" to="-1032517872#4" fromLane="0" toLane="0"/>
    <connection from="-1032618613#0" to="1032517872#5" fromLane="0" toLane="0"/>
    <connection from="-1032618613#0" to="1032618613#0" fromLane="0" toLane="0"/>

    <connection from="-1032618613#1" to="1032618612#1" fromLane="0" toLane="0"/>
    <connection from="-1032618613#1" to="-1032618613#0" fromLane="0" toLane="0"/>
    <connection from="-1032618613#1" to="-1032618612#0" fromLane="0" toLane="0"/>
    <connection from="-1032618613#1" to="1032618613#1" fromLane="0" toLane="0"/>

    <connection from="-1032886633#0" to="-1032481450#3" fromLane="0" toLane="0"/>
    <connection from="-1032886633#0" to="1032481450#4" fromLane="0" toLane="0"/>
    <connection from="-1032886633#0" to="1032886633#0" fromLane="0" toLane="0"/>

    <connection from="-1032886633#1" to="-1191758347" fromLane="0" toLane="0"/>
    <connection from="-1032886633#1" to="-1032886633#0" fromLane="0" toLane="0"/>
    <connection from="-1032886633#1" to="1032886633#1" fromLane="0" toLane="0"/>

    <connection from="-1032886633#2" to="-1190346885#4" fromLane="0" toLane="0"/>
    <connection from="-1032886633#2" to="-1032886633#1" fromLane="0" toLane="0"/>
    <connection from="-1032886633#2" to="1032886633#2" fromLane="0" toLane="0"/>

    <connection from="-1032886636#0" to="-1032886636#1" fromLane="0" toLane="0"/>
    <connection from="-1032886636#0" to="-1032886636#1" fromLane="1" toLane="1"/>
